#ethylene geometry from CRC Handbook 102nd Edition
$molecule
   0 1
   C1
   C2 C1 Rcc
   H1 C1 Rch C2 Acch
   H2 C1 Rch C2 Acch H1 180
   H3 C2 Rch C1 Acch H1 180
   H4 C2 Rch C1 Acch H2 180

   Rcc = 1.329
   Rch = 1.082
   Acch = 117.2 
$end

$rem
   METHOD mp2
   PRINT_ORBITALS TRUE
   BASIS sto-3g
$end

